<?xml version="1.0" encoding="UTF-8"?>

<!-- generated on 2026-01-13 16:34:59 by Eclipse SUMO netedit Version 1.19.0
<configuration xmlns:xsi="http://www.w3.org/2001/XMLSchema-instance" xsi:noNamespaceSchemaLocation="http://sumo.dlr.de/xsd/neteditConfiguration.xsd">

    <input>
        <sumo-net-file value="ff.net.xml"/>
    </input>

    <output>
        <output-file value="ff.net.xml"/>
    </output>

    <processing>
        <geometry.min-radius.fix.railways value="false"/>
        <geometry.avoid-overlap value="0"/>
        <geometry.max-grade.fix value="false"/>
        <offset.disable-normalization value="true"/>
        <lefthand value="0"/>
    </processing>

    <junctions>
        <no-turnarounds value="true"/>
        <junctions.corner-detail value="5"/>
        <junctions.limit-turn-speed value="5.50"/>
        <rectangular-lane-cut value="0"/>
    </junctions>

    <pedestrian>
        <walkingareas value="0"/>
    </pedestrian>

</configuration>
-->

<net version="1.16" junctionCornerDetail="5" limitTurnSpeed="5.50" avoidOverlap="0" xmlns:xsi="http://www.w3.org/2001/XMLSchema-instance" xsi:noNamespaceSchemaLocation="http://sumo.dlr.de/xsd/net_file.xsd">

    <location netOffset="0.00,0.00" convBoundary="0.00,0.00,1000.00,1000.00" origBoundary="0.00,0.00,1000.00,1000.00" projParameter="!"/>

    <edge id=":A1_0" function="internal">
        <lane id=":A1_0_0" index="0" speed="3.65" length="4.67" shape="0.00,201.60 -1.20,200.80 -1.60,200.00 -1.20,199.20 0.00,198.40"/>
    </edge>
    <edge id=":A2_0" function="internal">
        <lane id=":A2_0_0" index="0" speed="3.65" length="4.67" shape="0.00,401.60 -1.20,400.80 -1.60,400.00 -1.20,399.20 0.00,398.40"/>
    </edge>
    <edge id=":A3_0" function="internal">
        <lane id=":A3_0_0" index="0" speed="3.65" length="4.67" shape="0.00,601.60 -1.20,600.80 -1.60,600.00 -1.20,599.20 0.00,598.40"/>
    </edge>
    <edge id=":A4_0" function="internal">
        <lane id=":A4_0_0" index="0" speed="3.65" length="4.67" shape="0.00,801.60 -1.20,800.80 -1.60,800.00 -1.20,799.20 0.00,798.40"/>
    </edge>
    <edge id=":B0_0" function="internal">
        <lane id=":B0_0_0" index="0" speed="3.65" length="4.67" shape="198.40,0.00 199.20,-1.20 200.00,-1.60 200.80,-1.20 201.60,0.00"/>
    </edge>
    <edge id=":B1_0" function="internal">
        <lane id=":B1_0_0" index="0" allow="bicycle" speed="5.01" length="5.64" width="1.00" shape="189.90,212.60 189.68,211.07 189.03,209.97 187.93,209.32 186.40,209.10"/>
    </edge>
    <edge id=":B1_1" function="internal">
        <lane id=":B1_1_0" index="0" allow="bicycle" speed="13.89" length="25.20" width="1.00" shape="189.90,212.60 189.90,187.40"/>
    </edge>
    <edge id=":B1_2" function="internal">
        <lane id=":B1_2_0" index="0" speed="6.25" length="1.24" shape="192.00,212.60 191.79,211.37"/>
    </edge>
    <edge id=":B1_3" function="internal">
        <lane id=":B1_3_0" index="0" speed="13.89" length="25.20" shape="192.00,212.60 192.00,187.40"/>
        <lane id=":B1_3_1" index="1" speed="13.89" length="25.20" shape="195.20,212.60 195.20,187.40"/>
        <lane id=":B1_3_2" index="2" speed="13.89" length="25.20" shape="198.40,212.60 198.40,187.40"/>
    </edge>
    <edge id=":B1_6" function="internal">
        <lane id=":B1_6_0" index="0" speed="10.20" length="4.70" shape="198.40,212.60 199.11,207.95"/>
    </edge>
    <edge id=":B1_26" function="internal">
        <lane id=":B1_26_0" index="0" speed="6.25" length="7.00" shape="191.79,211.37 191.65,210.59 190.60,209.15 188.85,208.29 186.40,208.00"/>
    </edge>
    <edge id=":B1_27" function="internal">
        <lane id=":B1_27_0" index="0" speed="10.20" length="19.01" shape="199.11,207.95 199.35,206.39 202.20,201.95 206.95,199.29 213.60,198.40"/>
    </edge>
    <edge id=":B1_7" function="internal">
        <lane id=":B1_7_0" index="0" allow="bicycle" speed="5.30" length="5.64" width="1.00" shape="213.60,209.10 212.07,209.32 210.97,209.97 210.32,211.07 210.10,212.60"/>
        <lane id=":B1_7_1" index="1" speed="6.25" length="8.24" shape="213.60,208.00 211.15,208.29 209.40,209.15 208.35,210.59 208.00,212.60"/>
    </edge>
    <edge id=":B1_9" function="internal">
        <lane id=":B1_9_0" index="0" speed="13.89" length="27.20" shape="213.60,208.00 186.40,208.00"/>
        <lane id=":B1_9_1" index="1" speed="13.89" length="27.20" shape="213.60,204.80 186.40,204.80"/>
        <lane id=":B1_9_2" index="2" speed="13.89" length="27.20" shape="213.60,201.60 186.40,201.60"/>
    </edge>
    <edge id=":B1_12" function="internal">
        <lane id=":B1_12_0" index="0" speed="10.20" length="5.35" shape="213.60,201.60 208.30,200.89"/>
    </edge>
    <edge id=":B1_28" function="internal">
        <lane id=":B1_28_0" index="0" speed="10.20" length="18.36" shape="208.30,200.89 206.95,200.71 202.20,198.05 199.35,193.61 198.40,187.40"/>
    </edge>
    <edge id=":B1_13" function="internal">
        <lane id=":B1_13_0" index="0" allow="bicycle" speed="5.01" length="5.64" width="1.00" shape="210.10,187.40 210.32,188.93 210.97,190.03 212.07,190.68 213.60,190.90"/>
    </edge>
    <edge id=":B1_14" function="internal">
        <lane id=":B1_14_0" index="0" allow="bicycle" speed="13.89" length="25.20" width="1.00" shape="210.10,187.40 210.10,212.60"/>
    </edge>
    <edge id=":B1_15" function="internal">
        <lane id=":B1_15_0" index="0" speed="6.25" length="1.24" shape="208.00,187.40 208.21,188.63"/>
    </edge>
    <edge id=":B1_16" function="internal">
        <lane id=":B1_16_0" index="0" speed="13.89" length="25.20" shape="208.00,187.40 208.00,212.60"/>
        <lane id=":B1_16_1" index="1" speed="13.89" length="25.20" shape="204.80,187.40 204.80,212.60"/>
        <lane id=":B1_16_2" index="2" speed="13.89" length="25.20" shape="201.60,187.40 201.60,212.60"/>
    </edge>
    <edge id=":B1_19" function="internal">
        <lane id=":B1_19_0" index="0" speed="10.20" length="4.70" shape="201.60,187.40 200.89,192.05"/>
    </edge>
    <edge id=":B1_29" function="internal">
        <lane id=":B1_29_0" index="0" speed="6.25" length="7.00" shape="208.21,188.63 208.35,189.41 209.40,190.85 211.15,191.71 213.60,192.00"/>
    </edge>
    <edge id=":B1_30" function="internal">
        <lane id=":B1_30_0" index="0" speed="10.20" length="19.01" shape="200.89,192.05 200.65,193.61 197.80,198.05 193.05,200.71 186.40,201.60"/>
    </edge>
    <edge id=":B1_20" function="internal">
        <lane id=":B1_20_0" index="0" allow="bicycle" speed="5.30" length="5.64" width="1.00" shape="186.40,190.90 187.93,190.68 189.03,190.03 189.68,188.93 189.90,187.40"/>
        <lane id=":B1_20_1" index="1" speed="6.25" length="8.24" shape="186.40,192.00 188.85,191.71 190.60,190.85 191.65,189.41 192.00,187.40"/>
    </edge>
    <edge id=":B1_22" function="internal">
        <lane id=":B1_22_0" index="0" speed="13.89" length="27.20" shape="186.40,192.00 213.60,192.00"/>
        <lane id=":B1_22_1" index="1" speed="13.89" length="27.20" shape="186.40,195.20 213.60,195.20"/>
        <lane id=":B1_22_2" index="2" speed="13.89" length="27.20" shape="186.40,198.40 213.60,198.40"/>
    </edge>
    <edge id=":B1_25" function="internal">
        <lane id=":B1_25_0" index="0" speed="10.20" length="5.35" shape="186.40,198.40 191.70,199.11"/>
    </edge>
    <edge id=":B1_31" function="internal">
        <lane id=":B1_31_0" index="0" speed="10.20" length="18.36" shape="191.70,199.11 193.05,199.29 197.80,201.95 200.65,206.39 201.60,212.60"/>
    </edge>
    <edge id=":B2_0" function="internal">
        <lane id=":B2_0_0" index="0" allow="bicycle" speed="5.01" length="5.64" width="1.00" shape="189.90,412.60 189.68,411.07 189.03,409.98 187.93,409.32 186.40,409.10"/>
    </edge>
    <edge id=":B2_1" function="internal">
        <lane id=":B2_1_0" index="0" allow="bicycle" speed="13.89" length="25.20" width="1.00" shape="189.90,412.60 189.90,387.40"/>
    </edge>
    <edge id=":B2_2" function="internal">
        <lane id=":B2_2_0" index="0" speed="6.25" length="1.24" shape="192.00,412.60 191.79,411.37"/>
    </edge>
    <edge id=":B2_3" function="internal">
        <lane id=":B2_3_0" index="0" speed="13.89" length="25.20" shape="192.00,412.60 192.00,387.40"/>
        <lane id=":B2_3_1" index="1" speed="13.89" length="25.20" shape="195.20,412.60 195.20,387.40"/>
        <lane id=":B2_3_2" index="2" speed="13.89" length="25.20" shape="198.40,412.60 198.40,387.40"/>
    </edge>
    <edge id=":B2_6" function="internal">
        <lane id=":B2_6_0" index="0" speed="10.20" length="4.70" shape="198.40,412.60 199.11,407.95"/>
    </edge>
    <edge id=":B2_26" function="internal">
        <lane id=":B2_26_0" index="0" speed="6.25" length="7.00" shape="191.79,411.37 191.65,410.59 190.60,409.15 188.85,408.29 186.40,408.00"/>
    </edge>
    <edge id=":B2_27" function="internal">
        <lane id=":B2_27_0" index="0" speed="10.20" length="19.01" shape="199.11,407.95 199.35,406.39 202.20,401.95 206.95,399.29 213.60,398.40"/>
    </edge>
    <edge id=":B2_7" function="internal">
        <lane id=":B2_7_0" index="0" allow="bicycle" speed="5.30" length="5.64" width="1.00" shape="213.60,409.10 212.07,409.32 210.97,409.98 210.32,411.07 210.10,412.60"/>
        <lane id=":B2_7_1" index="1" speed="6.25" length="8.24" shape="213.60,408.00 211.15,408.29 209.40,409.15 208.35,410.59 208.00,412.60"/>
    </edge>
    <edge id=":B2_9" function="internal">
        <lane id=":B2_9_0" index="0" speed="13.89" length="27.20" shape="213.60,408.00 186.40,408.00"/>
        <lane id=":B2_9_1" index="1" speed="13.89" length="27.20" shape="213.60,404.80 186.40,404.80"/>
        <lane id=":B2_9_2" index="2" speed="13.89" length="27.20" shape="213.60,401.60 186.40,401.60"/>
    </edge>
    <edge id=":B2_12" function="internal">
        <lane id=":B2_12_0" index="0" speed="10.20" length="5.35" shape="213.60,401.60 208.30,400.89"/>
    </edge>
    <edge id=":B2_28" function="internal">
        <lane id=":B2_28_0" index="0" speed="10.20" length="18.36" shape="208.30,400.89 206.95,400.71 202.20,398.05 199.35,393.61 198.40,387.40"/>
    </edge>
    <edge id=":B2_13" function="internal">
        <lane id=":B2_13_0" index="0" allow="bicycle" speed="5.01" length="5.64" width="1.00" shape="210.10,387.40 210.32,388.93 210.97,390.02 212.07,390.68 213.60,390.90"/>
    </edge>
    <edge id=":B2_14" function="internal">
        <lane id=":B2_14_0" index="0" allow="bicycle" speed="13.89" length="25.20" width="1.00" shape="210.10,387.40 210.10,412.60"/>
    </edge>
    <edge id=":B2_15" function="internal">
        <lane id=":B2_15_0" index="0" speed="6.25" length="1.24" shape="208.00,387.40 208.21,388.63"/>
    </edge>
    <edge id=":B2_16" function="internal">
        <lane id=":B2_16_0" index="0" speed="13.89" length="25.20" shape="208.00,387.40 208.00,412.60"/>
        <lane id=":B2_16_1" index="1" speed="13.89" length="25.20" shape="204.80,387.40 204.80,412.60"/>
        <lane id=":B2_16_2" index="2" speed="13.89" length="25.20" shape="201.60,387.40 201.60,412.60"/>
    </edge>
    <edge id=":B2_19" function="internal">
        <lane id=":B2_19_0" index="0" speed="10.20" length="4.70" shape="201.60,387.40 200.89,392.05"/>
    </edge>
    <edge id=":B2_29" function="internal">
        <lane id=":B2_29_0" index="0" speed="6.25" length="7.00" shape="208.21,388.63 208.35,389.41 209.40,390.85 211.15,391.71 213.60,392.00"/>
    </edge>
    <edge id=":B2_30" function="internal">
        <lane id=":B2_30_0" index="0" speed="10.20" length="19.01" shape="200.89,392.05 200.65,393.61 197.80,398.05 193.05,400.71 186.40,401.60"/>
    </edge>
    <edge id=":B2_20" function="internal">
        <lane id=":B2_20_0" index="0" allow="bicycle" speed="5.30" length="5.64" width="1.00" shape="186.40,390.90 187.93,390.68 189.03,390.02 189.68,388.93 189.90,387.40"/>
        <lane id=":B2_20_1" index="1" speed="6.25" length="8.24" shape="186.40,392.00 188.85,391.71 190.60,390.85 191.65,389.41 192.00,387.40"/>
    </edge>
    <edge id=":B2_22" function="internal">
        <lane id=":B2_22_0" index="0" speed="13.89" length="27.20" shape="186.40,392.00 213.60,392.00"/>
        <lane id=":B2_22_1" index="1" speed="13.89" length="27.20" shape="186.40,395.20 213.60,395.20"/>
        <lane id=":B2_22_2" index="2" speed="13.89" length="27.20" shape="186.40,398.40 213.60,398.40"/>
    </edge>
    <edge id=":B2_25" function="internal">
        <lane id=":B2_25_0" index="0" speed="10.20" length="5.35" shape="186.40,398.40 191.70,399.11"/>
    </edge>
    <edge id=":B2_31" function="internal">
        <lane id=":B2_31_0" index="0" speed="10.20" length="18.36" shape="191.70,399.11 193.05,399.29 197.80,401.95 200.65,406.39 201.60,412.60"/>
    </edge>
    <edge id=":B3_0" function="internal">
        <lane id=":B3_0_0" index="0" allow="bicycle" speed="5.01" length="5.64" width="1.00" shape="189.90,612.60 189.68,611.07 189.03,609.98 187.93,609.32 186.40,609.10"/>
    </edge>
    <edge id=":B3_1" function="internal">
        <lane id=":B3_1_0" index="0" allow="bicycle" speed="13.89" length="25.20" width="1.00" shape="189.90,612.60 189.90,587.40"/>
    </edge>
    <edge id=":B3_2" function="internal">
        <lane id=":B3_2_0" index="0" speed="6.25" length="1.24" shape="192.00,612.60 191.79,611.37"/>
    </edge>
    <edge id=":B3_3" function="internal">
        <lane id=":B3_3_0" index="0" speed="13.89" length="25.20" shape="192.00,612.60 192.00,587.40"/>
        <lane id=":B3_3_1" index="1" speed="13.89" length="25.20" shape="195.20,612.60 195.20,587.40"/>
        <lane id=":B3_3_2" index="2" speed="13.89" length="25.20" shape="198.40,612.60 198.40,587.40"/>
    </edge>
    <edge id=":B3_6" function="internal">
        <lane id=":B3_6_0" index="0" speed="10.20" length="4.70" shape="198.40,612.60 199.11,607.95"/>
    </edge>
    <edge id=":B3_26" function="internal">
        <lane id=":B3_26_0" index="0" speed="6.25" length="7.00" shape="191.79,611.37 191.65,610.59 190.60,609.15 188.85,608.29 186.40,608.00"/>
    </edge>
    <edge id=":B3_27" function="internal">
        <lane id=":B3_27_0" index="0" speed="10.20" length="19.01" shape="199.11,607.95 199.35,606.39 202.20,601.95 206.95,599.29 213.60,598.40"/>
    </edge>
    <edge id=":B3_7" function="internal">
        <lane id=":B3_7_0" index="0" allow="bicycle" speed="5.30" length="5.64" width="1.00" shape="213.60,609.10 212.07,609.32 210.97,609.98 210.32,611.07 210.10,612.60"/>
        <lane id=":B3_7_1" index="1" speed="6.25" length="8.24" shape="213.60,608.00 211.15,608.29 209.40,609.15 208.35,610.59 208.00,612.60"/>
    </edge>
    <edge id=":B3_9" function="internal">
        <lane id=":B3_9_0" index="0" speed="13.89" length="27.20" shape="213.60,608.00 186.40,608.00"/>
        <lane id=":B3_9_1" index="1" speed="13.89" length="27.20" shape="213.60,604.80 186.40,604.80"/>
        <lane id=":B3_9_2" index="2" speed="13.89" length="27.20" shape="213.60,601.60 186.40,601.60"/>
    </edge>
    <edge id=":B3_12" function="internal">
        <lane id=":B3_12_0" index="0" speed="10.20" length="5.35" shape="213.60,601.60 208.30,600.89"/>
    </edge>
    <edge id=":B3_28" function="internal">
        <lane id=":B3_28_0" index="0" speed="10.20" length="18.36" shape="208.30,600.89 206.95,600.71 202.20,598.05 199.35,593.61 198.40,587.40"/>
    </edge>
    <edge id=":B3_13" function="internal">
        <lane id=":B3_13_0" index="0" allow="bicycle" speed="5.01" length="5.64" width="1.00" shape="210.10,587.40 210.32,588.93 210.97,590.02 212.07,590.68 213.60,590.90"/>
    </edge>
    <edge id=":B3_14" function="internal">
        <lane id=":B3_14_0" index="0" allow="bicycle" speed="13.89" length="25.20" width="1.00" shape="210.10,587.40 210.10,612.60"/>
    </edge>
    <edge id=":B3_15" function="internal">
        <lane id=":B3_15_0" index="0" speed="6.25" length="1.24" shape="208.00,587.40 208.21,588.63"/>
    </edge>
    <edge id=":B3_16" function="internal">
        <lane id=":B3_16_0" index="0" speed="13.89" length="25.20" shape="208.00,587.40 208.00,612.60"/>
        <lane id=":B3_16_1" index="1" speed="13.89" length="25.20" shape="204.80,587.40 204.80,612.60"/>
        <lane id=":B3_16_2" index="2" speed="13.89" length="25.20" shape="201.60,587.40 201.60,612.60"/>
    </edge>
    <edge id=":B3_19" function="internal">
        <lane id=":B3_19_0" index="0" speed="10.20" length="4.70" shape="201.60,587.40 200.89,592.05"/>
    </edge>
    <edge id=":B3_29" function="internal">
        <lane id=":B3_29_0" index="0" speed="6.25" length="7.00" shape="208.21,588.63 208.35,589.41 209.40,590.85 211.15,591.71 213.60,592.00"/>
    </edge>
    <edge id=":B3_30" function="internal">
        <lane id=":B3_30_0" index="0" speed="10.20" length="19.01" shape="200.89,592.05 200.65,593.61 197.80,598.05 193.05,600.71 186.40,601.60"/>
    </edge>
    <edge id=":B3_20" function="internal">
        <lane id=":B3_20_0" index="0" allow="bicycle" speed="5.30" length="5.64" width="1.00" shape="186.40,590.90 187.93,590.68 189.03,590.02 189.68,588.93 189.90,587.40"/>
        <lane id=":B3_20_1" index="1" speed="6.25" length="8.24" shape="186.40,592.00 188.85,591.71 190.60,590.85 191.65,589.41 192.00,587.40"/>
    </edge>
    <edge id=":B3_22" function="internal">
        <lane id=":B3_22_0" index="0" speed="13.89" length="27.20" shape="186.40,592.00 213.60,592.00"/>
        <lane id=":B3_22_1" index="1" speed="13.89" length="27.20" shape="186.40,595.20 213.60,595.20"/>
        <lane id=":B3_22_2" index="2" speed="13.89" length="27.20" shape="186.40,598.40 213.60,598.40"/>
    </edge>
    <edge id=":B3_25" function="internal">
        <lane id=":B3_25_0" index="0" speed="10.20" length="5.35" shape="186.40,598.40 191.70,599.11"/>
    </edge>
    <edge id=":B3_31" function="internal">
        <lane id=":B3_31_0" index="0" speed="10.20" length="18.36" shape="191.70,599.11 193.05,599.29 197.80,601.95 200.65,606.39 201.60,612.60"/>
    </edge>
    <edge id=":B4_0" function="internal">
        <lane id=":B4_0_0" index="0" allow="bicycle" speed="5.01" length="5.64" width="1.00" shape="189.90,812.60 189.68,811.07 189.03,809.98 187.93,809.32 186.40,809.10"/>
    </edge>
    <edge id=":B4_1" function="internal">
        <lane id=":B4_1_0" index="0" allow="bicycle" speed="13.89" length="25.20" width="1.00" shape="189.90,812.60 189.90,787.40"/>
    </edge>
    <edge id=":B4_2" function="internal">
        <lane id=":B4_2_0" index="0" speed="6.25" length="1.24" shape="192.00,812.60 191.79,811.37"/>
    </edge>
    <edge id=":B4_3" function="internal">
        <lane id=":B4_3_0" index="0" speed="13.89" length="25.20" shape="192.00,812.60 192.00,787.40"/>
        <lane id=":B4_3_1" index="1" speed="13.89" length="25.20" shape="195.20,812.60 195.20,787.40"/>
        <lane id=":B4_3_2" index="2" speed="13.89" length="25.20" shape="198.40,812.60 198.40,787.40"/>
    </edge>
    <edge id=":B4_6" function="internal">
        <lane id=":B4_6_0" index="0" speed="10.20" length="4.70" shape="198.40,812.60 199.11,807.95"/>
    </edge>
    <edge id=":B4_26" function="internal">
        <lane id=":B4_26_0" index="0" speed="6.25" length="7.00" shape="191.79,811.37 191.65,810.59 190.60,809.15 188.85,808.29 186.40,808.00"/>
    </edge>
    <edge id=":B4_27" function="internal">
        <lane id=":B4_27_0" index="0" speed="10.20" length="19.01" shape="199.11,807.95 199.35,806.39 202.20,801.95 206.95,799.29 213.60,798.40"/>
    </edge>
    <edge id=":B4_7" function="internal">
        <lane id=":B4_7_0" index="0" allow="bicycle" speed="5.30" length="5.64" width="1.00" shape="213.60,809.10 212.07,809.32 210.97,809.98 210.32,811.07 210.10,812.60"/>
        <lane id=":B4_7_1" index="1" speed="6.25" length="8.24" shape="213.60,808.00 211.15,808.29 209.40,809.15 208.35,810.59 208.00,812.60"/>
    </edge>
    <edge id=":B4_9" function="internal">
        <lane id=":B4_9_0" index="0" speed="13.89" length="27.20" shape="213.60,808.00 186.40,808.00"/>
        <lane id=":B4_9_1" index="1" speed="13.89" length="27.20" shape="213.60,804.80 186.40,804.80"/>
        <lane id=":B4_9_2" index="2" speed="13.89" length="27.20" shape="213.60,801.60 186.40,801.60"/>
    </edge>
    <edge id=":B4_12" function="internal">
        <lane id=":B4_12_0" index="0" speed="10.20" length="5.35" shape="213.60,801.60 208.30,800.89"/>
    </edge>
    <edge id=":B4_28" function="internal">
        <lane id=":B4_28_0" index="0" speed="10.20" length="18.36" shape="208.30,800.89 206.95,800.71 202.20,798.05 199.35,793.61 198.40,787.40"/>
    </edge>
    <edge id=":B4_13" function="internal">
        <lane id=":B4_13_0" index="0" allow="bicycle" speed="5.01" length="5.64" width="1.00" shape="210.10,787.40 210.32,788.93 210.97,790.02 212.07,790.68 213.60,790.90"/>
    </edge>
    <edge id=":B4_14" function="internal">
        <lane id=":B4_14_0" index="0" allow="bicycle" speed="13.89" length="25.20" width="1.00" shape="210.10,787.40 210.10,812.60"/>
    </edge>
    <edge id=":B4_15" function="internal">
        <lane id=":B4_15_0" index="0" speed="6.25" length="1.24" shape="208.00,787.40 208.21,788.63"/>
    </edge>
    <edge id=":B4_16" function="internal">
        <lane id=":B4_16_0" index="0" speed="13.89" length="25.20" shape="208.00,787.40 208.00,812.60"/>
        <lane id=":B4_16_1" index="1" speed="13.89" length="25.20" shape="204.80,787.40 204.80,812.60"/>
        <lane id=":B4_16_2" index="2" speed="13.89" length="25.20" shape="201.60,787.40 201.60,812.60"/>
    </edge>
    <edge id=":B4_19" function="internal">
        <lane id=":B4_19_0" index="0" speed="10.20" length="4.70" shape="201.60,787.40 200.89,792.05"/>
    </edge>
    <edge id=":B4_29" function="internal">
        <lane id=":B4_29_0" index="0" speed="6.25" length="7.00" shape="208.21,788.63 208.35,789.41 209.40,790.85 211.15,791.71 213.60,792.00"/>
    </edge>
    <edge id=":B4_30" function="internal">
        <lane id=":B4_30_0" index="0" speed="10.20" length="19.01" shape="200.89,792.05 200.65,793.61 197.80,798.05 193.05,800.71 186.40,801.60"/>
    </edge>
    <edge id=":B4_20" function="internal">
        <lane id=":B4_20_0" index="0" allow="bicycle" speed="5.30" length="5.64" width="1.00" shape="186.40,790.90 187.93,790.68 189.03,790.02 189.68,788.93 189.90,787.40"/>
        <lane id=":B4_20_1" index="1" speed="6.25" length="8.24" shape="186.40,792.00 188.85,791.71 190.60,790.85 191.65,789.41 192.00,787.40"/>
    </edge>
    <edge id=":B4_22" function="internal">
        <lane id=":B4_22_0" index="0" speed="13.89" length="27.20" shape="186.40,792.00 213.60,792.00"/>
        <lane id=":B4_22_1" index="1" speed="13.89" length="27.20" shape="186.40,795.20 213.60,795.20"/>
        <lane id=":B4_22_2" index="2" speed="13.89" length="27.20" shape="186.40,798.40 213.60,798.40"/>
    </edge>
    <edge id=":B4_25" function="internal">
        <lane id=":B4_25_0" index="0" speed="10.20" length="5.35" shape="186.40,798.40 191.70,799.11"/>
    </edge>
    <edge id=":B4_31" function="internal">
        <lane id=":B4_31_0" index="0" speed="10.20" length="18.36" shape="191.70,799.11 193.05,799.29 197.80,801.95 200.65,806.39 201.60,812.60"/>
    </edge>
    <edge id=":B5_0" function="internal">
        <lane id=":B5_0_0" index="0" speed="3.65" length="4.67" shape="201.60,1000.00 200.80,1001.20 200.00,1001.60 199.20,1001.20 198.40,1000.00"/>
    </edge>
    <edge id=":C0_0" function="internal">
        <lane id=":C0_0_0" index="0" speed="3.65" length="4.67" shape="398.40,0.00 399.20,-1.20 400.00,-1.60 400.80,-1.20 401.60,0.00"/>
    </edge>
    <edge id=":C1_0" function="internal">
        <lane id=":C1_0_0" index="0" speed="6.51" length="9.03" shape="392.00,213.60 391.65,211.15 390.60,209.40 388.85,208.35 386.40,208.00"/>
    </edge>
    <edge id=":C1_1" function="internal">
        <lane id=":C1_1_0" index="0" speed="13.89" length="27.20" shape="392.00,213.60 392.00,186.40"/>
        <lane id=":C1_1_1" index="1" speed="13.89" length="27.20" shape="395.20,213.60 395.20,186.40"/>
        <lane id=":C1_1_2" index="2" speed="13.89" length="27.20" shape="398.40,213.60 398.40,186.40"/>
    </edge>
    <edge id=":C1_4" function="internal">
        <lane id=":C1_4_0" index="0" speed="10.36" length="5.01" shape="398.40,213.60 399.11,208.64"/>
    </edge>
    <edge id=":C1_20" function="internal">
        <lane id=":C1_20_0" index="0" speed="10.36" length="19.50" shape="399.11,208.64 399.35,206.95 402.20,202.20 406.95,199.35 413.60,198.40"/>
    </edge>
    <edge id=":C1_5" function="internal">
        <lane id=":C1_5_0" index="0" speed="6.51" length="9.03" shape="413.60,208.00 411.15,208.35 409.40,209.40 408.35,211.15 408.00,213.60"/>
    </edge>
    <edge id=":C1_6" function="internal">
        <lane id=":C1_6_0" index="0" speed="13.89" length="27.20" shape="413.60,208.00 386.40,208.00"/>
        <lane id=":C1_6_1" index="1" speed="13.89" length="27.20" shape="413.60,204.80 386.40,204.80"/>
        <lane id=":C1_6_2" index="2" speed="13.89" length="27.20" shape="413.60,201.60 386.40,201.60"/>
    </edge>
    <edge id=":C1_9" function="internal">
        <lane id=":C1_9_0" index="0" speed="10.36" length="5.01" shape="413.60,201.60 408.64,200.89"/>
    </edge>
    <edge id=":C1_21" function="internal">
        <lane id=":C1_21_0" index="0" speed="10.36" length="19.50" shape="408.64,200.89 406.95,200.65 402.20,197.80 399.35,193.05 398.40,186.40"/>
    </edge>
    <edge id=":C1_10" function="internal">
        <lane id=":C1_10_0" index="0" speed="6.51" length="9.03" shape="408.00,186.40 408.35,188.85 409.40,190.60 411.15,191.65 413.60,192.00"/>
    </edge>
    <edge id=":C1_11" function="internal">
        <lane id=":C1_11_0" index="0" speed="13.89" length="27.20" shape="408.00,186.40 408.00,213.60"/>
        <lane id=":C1_11_1" index="1" speed="13.89" length="27.20" shape="404.80,186.40 404.80,213.60"/>
        <lane id=":C1_11_2" index="2" speed="13.89" length="27.20" shape="401.60,186.40 401.60,213.60"/>
    </edge>
    <edge id=":C1_14" function="internal">
        <lane id=":C1_14_0" index="0" speed="10.36" length="5.01" shape="401.60,186.40 400.89,191.36"/>
    </edge>
    <edge id=":C1_22" function="internal">
        <lane id=":C1_22_0" index="0" speed="10.36" length="19.50" shape="400.89,191.36 400.65,193.05 397.80,197.80 393.05,200.65 386.40,201.60"/>
    </edge>
    <edge id=":C1_15" function="internal">
        <lane id=":C1_15_0" index="0" speed="6.51" length="9.03" shape="386.40,192.00 388.85,191.65 390.60,190.60 391.65,188.85 392.00,186.40"/>
    </edge>
    <edge id=":C1_16" function="internal">
        <lane id=":C1_16_0" index="0" speed="13.89" length="27.20" shape="386.40,192.00 413.60,192.00"/>
        <lane id=":C1_16_1" index="1" speed="13.89" length="27.20" shape="386.40,195.20 413.60,195.20"/>
        <lane id=":C1_16_2" index="2" speed="13.89" length="27.20" shape="386.40,198.40 413.60,198.40"/>
    </edge>
    <edge id=":C1_19" function="internal">
        <lane id=":C1_19_0" index="0" speed="10.36" length="5.01" shape="386.40,198.40 391.36,199.11"/>
    </edge>
    <edge id=":C1_23" function="internal">
        <lane id=":C1_23_0" index="0" speed="10.36" length="19.50" shape="391.36,199.11 393.05,199.35 397.80,202.20 400.65,206.95 401.60,213.60"/>
    </edge>
    <edge id=":C2_0" function="internal">
        <lane id=":C2_0_0" index="0" speed="6.51" length="9.03" shape="392.00,413.60 391.65,411.15 390.60,409.40 388.85,408.35 386.40,408.00"/>
    </edge>
    <edge id=":C2_1" function="internal">
        <lane id=":C2_1_0" index="0" speed="13.89" length="27.20" shape="392.00,413.60 392.00,386.40"/>
        <lane id=":C2_1_1" index="1" speed="13.89" length="27.20" shape="395.20,413.60 395.20,386.40"/>
        <lane id=":C2_1_2" index="2" speed="13.89" length="27.20" shape="398.40,413.60 398.40,386.40"/>
    </edge>
    <edge id=":C2_4" function="internal">
        <lane id=":C2_4_0" index="0" speed="10.36" length="5.01" shape="398.40,413.60 399.11,408.64"/>
    </edge>
    <edge id=":C2_20" function="internal">
        <lane id=":C2_20_0" index="0" speed="10.36" length="19.50" shape="399.11,408.64 399.35,406.95 402.20,402.20 406.95,399.35 413.60,398.40"/>
    </edge>
    <edge id=":C2_5" function="internal">
        <lane id=":C2_5_0" index="0" speed="6.51" length="9.03" shape="413.60,408.00 411.15,408.35 409.40,409.40 408.35,411.15 408.00,413.60"/>
    </edge>
    <edge id=":C2_6" function="internal">
        <lane id=":C2_6_0" index="0" speed="13.89" length="27.20" shape="413.60,408.00 386.40,408.00"/>
        <lane id=":C2_6_1" index="1" speed="13.89" length="27.20" shape="413.60,404.80 386.40,404.80"/>
        <lane id=":C2_6_2" index="2" speed="13.89" length="27.20" shape="413.60,401.60 386.40,401.60"/>
    </edge>
    <edge id=":C2_9" function="internal">
        <lane id=":C2_9_0" index="0" speed="10.36" length="5.01" shape="413.60,401.60 408.64,400.89"/>
    </edge>
    <edge id=":C2_21" function="internal">
        <lane id=":C2_21_0" index="0" speed="10.36" length="19.50" shape="408.64,400.89 406.95,400.65 402.20,397.80 399.35,393.05 398.40,386.40"/>
    </edge>
    <edge id=":C2_10" function="internal">
        <lane id=":C2_10_0" index="0" speed="6.51" length="9.03" shape="408.00,386.40 408.35,388.85 409.40,390.60 411.15,391.65 413.60,392.00"/>
    </edge>
    <edge id=":C2_11" function="internal">
        <lane id=":C2_11_0" index="0" speed="13.89" length="27.20" shape="408.00,386.40 408.00,413.60"/>
        <lane id=":C2_11_1" index="1" speed="13.89" length="27.20" shape="404.80,386.40 404.80,413.60"/>
        <lane id=":C2_11_2" index="2" speed="13.89" length="27.20" shape="401.60,386.40 401.60,413.60"/>
    </edge>
    <edge id=":C2_14" function="internal">
        <lane id=":C2_14_0" index="0" speed="10.36" length="5.01" shape="401.60,386.40 400.89,391.36"/>
    </edge>
    <edge id=":C2_22" function="internal">
        <lane id=":C2_22_0" index="0" speed="10.36" length="19.50" shape="400.89,391.36 400.65,393.05 397.80,397.80 393.05,400.65 386.40,401.60"/>
    </edge>